<?xml version="1.0" encoding="UTF-8"?>

<net version="0.27" xmlns:xsi="http://www.w3.org/2001/XMLSchema-instance" xsi:noNamespaceSchemaLocation="http://sumo.dlr.de/xsd/net_file.xsd">

    <location netOffset="-116.63,-205.03" convBoundary="197.39,0.00,5940.89,1807.39" origBoundary="116.63,205.03,6057.51,2053.85" projParameter="!"/>

    <edge id=":2026267109_0" function="internal">
        <lane id=":2026267109_0_0" index="0" speed="100" length="0.38" shape="4728.04,117.83 4728.16,117.85"/>
        <lane id=":2026267109_0_1" index="1" speed="100" length="0.38" shape="4727.55,121.10 4727.93,121.14"/>
        <lane id=":2026267109_0_2" index="2" speed="100" length="0.38" shape="4727.06,124.36 4727.69,124.43"/>
    </edge>
    <edge id=":2039989397_0" function="internal">
        <lane id=":2039989397_0_0" index="0" speed="100" length="0.91" shape="5777.51,28.87 5777.87,28.68 5778.13,28.57 5778.39,28.49 5778.79,28.40"/>
        <lane id=":2039989397_0_1" index="1" speed="100" length="0.91" shape="5779.07,31.78 5779.18,31.72 5779.27,31.68 5779.36,31.66 5779.49,31.63"/>
    </edge>
    <edge id=":315862829_0" function="internal">
        <lane id=":315862829_0_0" index="0" speed="100" length="12.11" shape="5703.08,82.60 5702.52,69.07"/>
        <lane id=":315862829_0_1" index="1" speed="100" length="12.11" shape="5703.08,82.60 5704.08,71.98"/>
    </edge>
    <edge id=":315862829_2" function="internal">
        <lane id=":315862829_2_0" index="0" speed="100" length="7.99" shape="5703.08,82.60 5705.39,75.23"/>
        <lane id=":315862829_2_1" index="1" speed="100" length="7.99" shape="5703.46,85.88 5706.28,78.41"/>
        <lane id=":315862829_2_2" index="2" speed="100" length="7.99" shape="5703.84,89.16 5707.17,81.59"/>
    </edge>
    <edge id=":589619_0" function="internal">
        <lane id=":589619_0_0" index="0" speed="100" length="0.10" shape="362.00,1633.58 362.04,1633.54"/>
        <lane id=":589619_0_1" index="1" speed="100" length="0.10" shape="364.28,1635.96 364.31,1635.93"/>
        <lane id=":589619_0_2" index="2" speed="100" length="0.10" shape="366.56,1638.34 366.60,1638.31"/>
    </edge>
    <edge id=":589622_0" function="internal">
        <lane id=":589622_0_0" index="0" speed="100" length="0.10" shape="743.71,1279.37 743.66,1279.42"/>
        <lane id=":589622_0_1" index="1" speed="100" length="0.10" shape="745.95,1281.79 745.92,1281.82"/>
        <lane id=":589622_0_2" index="2" speed="100" length="0.10" shape="748.20,1284.21 748.19,1284.22"/>
    </edge>
    <edge id=":589625_0" function="internal">
        <lane id=":589625_0_0" index="0" speed="100" length="2.12" shape="1106.81,937.02 1107.58,936.31 1108.16,935.88 1108.82,935.57 1109.81,935.22"/>
        <lane id=":589625_0_1" index="1" speed="100" length="2.12" shape="1109.07,939.42 1109.53,939.00 1109.88,938.74 1110.27,938.55 1110.86,938.34"/>
        <lane id=":589625_0_2" index="2" speed="100" length="2.12" shape="1111.34,941.82 1111.49,941.68 1111.60,941.60 1111.73,941.54 1111.92,941.47"/>
    </edge>
    <edge id=":589667_0" function="internal">
        <lane id=":589667_0_0" index="0" speed="100" length="0.91" shape="5140.05,147.34 5140.14,147.34 5140.20,147.34 5140.26,147.34 5140.35,147.33"/>
        <lane id=":589667_0_1" index="1" speed="100" length="0.91" shape="5139.82,150.63 5140.09,150.64 5140.27,150.65 5140.46,150.64 5140.73,150.61"/>
        <lane id=":589667_0_2" index="2" speed="100" length="0.91" shape="5139.58,153.92 5140.03,153.95 5140.34,153.96 5140.65,153.94 5141.10,153.89"/>
    </edge>
    <edge id=":703473816_0" function="internal">
        <lane id=":703473816_0_0" index="0" speed="100" length="2.07" shape="3896.84,6.36 3897.83,6.07 3898.53,5.94 3899.23,5.94 3900.25,6.05"/>
        <lane id=":703473816_0_1" index="1" speed="100" length="2.07" shape="3897.82,9.51 3898.41,9.34 3898.83,9.26 3899.25,9.26 3899.86,9.32"/>
        <lane id=":703473816_0_2" index="2" speed="100" length="2.07" shape="3898.80,12.66 3898.99,12.60 3899.13,12.58 3899.27,12.58 3899.47,12.60"/>
    </edge>
    <edge id=":X10_0" function="internal">
        <lane id=":X10_0_0" index="0" speed="100" length="0.10" shape="4322.85,56.88 4322.90,56.89"/>
        <lane id=":X10_0_1" index="1" speed="100" length="0.10" shape="4322.41,60.15 4322.46,60.16"/>
        <lane id=":X10_0_2" index="2" speed="100" length="0.10" shape="4321.97,63.42 4322.02,63.43"/>
    </edge>
    <edge id=":X2_0" function="internal">
        <lane id=":X2_0_0" index="0" speed="100" length="0.10" shape="1567.12,780.53 1567.12,780.53"/>
        <lane id=":X2_0_1" index="1" speed="100" length="0.10" shape="1568.17,783.65 1568.17,783.65"/>
        <lane id=":X2_0_2" index="2" speed="100" length="0.10" shape="1569.23,786.78 1569.23,786.78"/>
    </edge>
    <edge id=":X3_0" function="internal">
        <lane id=":X3_0_0" index="0" speed="100" length="0.10" shape="2024.41,625.84 2024.41,625.84"/>
        <lane id=":X3_0_1" index="1" speed="100" length="0.10" shape="2025.46,628.96 2025.46,628.96"/>
        <lane id=":X3_0_2" index="2" speed="100" length="0.10" shape="2026.52,632.09 2026.52,632.09"/>
    </edge>
    <edge id=":X4_0" function="internal">
        <lane id=":X4_0_0" index="0" speed="100" length="0.10" shape="2481.70,471.15 2481.70,471.15"/>
        <lane id=":X4_0_1" index="1" speed="100" length="0.10" shape="2482.75,474.27 2482.75,474.27"/>
        <lane id=":X4_0_2" index="2" speed="100" length="0.10" shape="2483.81,477.40 2483.81,477.40"/>
    </edge>
    <edge id=":X5_0" function="internal">
        <lane id=":X5_0_0" index="0" speed="100" length="0.10" shape="2939.00,316.46 2939.00,316.46"/>
        <lane id=":X5_0_1" index="1" speed="100" length="0.10" shape="2940.05,319.58 2940.05,319.58"/>
        <lane id=":X5_0_2" index="2" speed="100" length="0.10" shape="2941.11,322.71 2941.11,322.71"/>
    </edge>
    <edge id=":X6_0" function="internal">
        <lane id=":X6_0_0" index="0" speed="100" length="0.10" shape="3396.41,161.72 3396.43,161.72"/>
        <lane id=":X6_0_1" index="1" speed="100" length="0.10" shape="3397.39,164.88 3397.46,164.85"/>
        <lane id=":X6_0_2" index="2" speed="100" length="0.10" shape="3398.40,168.02 3398.44,168.00"/>
    </edge>

    <edge id="192064428" from="589622" to="589625" priority="13">
        <lane id="192064428_0" index="0" speed="100" length="499.11" shape="743.66,1279.42 1106.81,937.02"/>
        <lane id="192064428_1" index="1" speed="100" length="499.11" shape="745.92,1281.82 1109.07,939.42"/>
        <lane id="192064428_2" index="2" speed="100" length="499.11" shape="748.19,1284.22 1111.34,941.82"/>
    </edge>
    <edge id="192916359#0+56044321#1" from="2026267109" to="589667" priority="13">
        <lane id="192916359#0+56044321#1_0" index="0" speed="100" length="412.95" shape="4728.16,117.85 5140.05,147.34"/>
        <lane id="192916359#0+56044321#1_1" index="1" speed="100" length="412.95" shape="4727.93,121.14 5139.82,150.63"/>
        <lane id="192916359#0+56044321#1_2" index="2" speed="100" length="412.95" shape="4727.69,124.43 5139.58,153.92"/>
    </edge>
    <edge id="199347986" from="589667" to="315862829" priority="13">
        <lane id="199347986_0" index="0" speed="100" length="566.44" shape="5140.35,147.33 5703.08,82.60"/>
        <lane id="199347986_1" index="1" speed="100" length="566.44" shape="5140.73,150.61 5703.46,85.88"/>
        <lane id="199347986_2" index="2" speed="100" length="566.44" shape="5141.10,153.89 5703.84,89.16"/>
    </edge>
    <edge id="199347993#0" from="315862829" to="2039989395" priority="13">
        <lane id="199347993#0_0" index="0" speed="100" length="242.23" shape="5705.39,75.23 5938.67,9.99"/>
        <lane id="199347993#0_1" index="1" speed="100" length="242.23" shape="5706.28,78.41 5939.56,13.17"/>
        <lane id="199347993#0_2" index="2" speed="100" length="242.23" shape="5707.17,81.59 5940.45,16.35"/>
    </edge>
    <edge id="199348013" from="2039989397" to="30391552" priority="12">
        <lane id="199348013_0" index="0" speed="100" length="158.17" shape="5778.79,28.40 5933.43,-4.84"/>
        <lane id="199348013_1" index="1" speed="100" length="158.17" shape="5779.49,31.63 5934.12,-1.61"/>
    </edge>
    <edge id="199348020" from="315862829" to="2039989397" priority="12">
        <lane id="199348020_0" index="0" speed="100" length="85.08" shape="5702.52,69.07 5777.51,28.87"/>
        <lane id="199348020_1" index="1" speed="100" length="85.08" shape="5704.08,71.98 5779.07,31.78"/>
    </edge>
    <edge id="25730107" from="589619" to="589622" priority="13">
        <lane id="25730107_0" index="0" speed="100" length="520.63" shape="362.04,1633.54 743.71,1279.37"/>
        <lane id="25730107_1" index="1" speed="100" length="520.63" shape="364.31,1635.93 745.95,1281.79"/>
        <lane id="25730107_2" index="2" speed="100.00" length="520.63" shape="366.60,1638.31 748.20,1284.21"/>
    </edge>
    <edge id="257301231" from="589625" to="X2" priority="13">
        <lane id="257301231_0" index="0" speed="100" length="482.77" shape="1109.81,935.22 1567.12,780.53"/>
        <lane id="257301231_1" index="1" speed="100" length="482.77" shape="1110.86,938.34 1568.17,783.65"/>
        <lane id="257301231_2" index="2" speed="100" length="482.77" shape="1111.92,941.47 1569.23,786.78"/>
    </edge>
    <edge id="257301232" from="X2" to="X3" priority="13">
        <lane id="257301232_0" index="0" speed="100" length="482.75" shape="1567.12,780.53 2024.41,625.84"/>
        <lane id="257301232_1" index="1" speed="100" length="482.75" shape="1568.17,783.65 2025.46,628.96"/>
        <lane id="257301232_2" index="2" speed="100" length="482.75" shape="1569.23,786.78 2026.52,632.09"/>
    </edge>
    <edge id="257301233" from="X3" to="X4" priority="13">
        <lane id="257301233_0" index="0" speed="100" length="482.75" shape="2024.41,625.84 2481.70,471.15"/>
        <lane id="257301233_1" index="1" speed="100" length="482.75" shape="2025.46,628.96 2482.75,474.27"/>
        <lane id="257301233_2" index="2" speed="100" length="482.75" shape="2026.52,632.09 2483.81,477.40"/>
    </edge>
    <edge id="257301234" from="X4" to="X5" priority="13">
        <lane id="257301234_0" index="0" speed="100" length="482.75" shape="2481.70,471.15 2939.00,316.46"/>
        <lane id="257301234_1" index="1" speed="100" length="482.75" shape="2482.75,474.27 2940.05,319.58"/>
        <lane id="257301234_2" index="2" speed="100" length="482.75" shape="2483.81,477.40 2941.11,322.71"/>
    </edge>
    <edge id="257301235" from="X5" to="X6" priority="13">
        <lane id="257301235_0" index="0" speed="100" length="482.80" shape="2939.00,316.46 3396.41,161.72"/>
        <lane id="257301235_1" index="1" speed="100" length="482.80" shape="2940.05,319.58 3397.39,164.88"/>
        <lane id="257301235_2" index="2" speed="100" length="482.80" shape="2941.11,322.71 3398.40,168.02"/>
    </edge>
    <edge id="257301236" from="X6" to="703473816" priority="13">
        <lane id="257301236_0" index="0" speed="100" length="523.94" shape="3396.43,161.72 3896.84,6.36"/>
        <lane id="257301236_1" index="1" speed="100" length="523.94" shape="3397.46,164.85 3897.82,9.51"/>
        <lane id="257301236_2" index="2" speed="100" length="523.94" shape="3398.44,168.00 3898.80,12.66"/>
    </edge>
    <edge id="289941480" from="2934752272" to="589619" priority="13">
        <lane id="289941480_0" index="0" speed="100.00" length="239.20" shape="191.60,1801.51 362.00,1633.58"/>
        <lane id="289941480_1" index="1" speed="100.00" length="239.20" shape="193.92,1803.86 364.28,1635.96"/>
        <lane id="289941480_2" index="2" speed="100.00" length="239.20" shape="196.23,1806.21 366.56,1638.34"/>
    </edge>
    <edge id="560443211#0" from="703473816" to="X10" priority="13">
        <lane id="560443211#0_0" index="0" speed="100" length="425.60" shape="3900.25,6.05 4322.85,56.88"/>
        <lane id="560443211#0_1" index="1" speed="100" length="425.60" shape="3899.86,9.32 4322.41,60.15"/>
        <lane id="560443211#0_2" index="2" speed="100" length="425.60" shape="3899.47,12.60 4321.97,63.42"/>
    </edge>
    <edge id="560443212#0" from="X10" to="2026267109" priority="13">
        <lane id="560443212#0_0" index="0" speed="100" length="409.65" shape="4322.90,56.89 4728.04,117.83"/>
        <lane id="560443212#0_1" index="1" speed="100" length="409.65" shape="4322.46,60.16 4727.55,121.10"/>
        <lane id="560443212#0_2" index="2" speed="100" length="409.65" shape="4322.02,63.43 4727.06,124.36"/>
    </edge>

    <junction id="2026267109" type="priority" x="4727.19" y="126.05" incLanes="560443212#0_0 560443212#0_1 560443212#0_2" intLanes=":2026267109_0_0 :2026267109_0_1 :2026267109_0_2" shape="4727.58,126.03 4728.28,116.25 4726.82,125.94">
        <request index="0" response="000" foes="000" cont="0"/>
        <request index="1" response="000" foes="000" cont="0"/>
        <request index="2" response="000" foes="000" cont="0"/>
    </junction>
    <junction id="2039989395" type="unregulated" x="5940.89" y="17.94" incLanes="199347993#0_0 199347993#0_1 199347993#0_2" intLanes="" shape="5938.24,8.45 5940.88,17.89"/>
    <junction id="2039989397" type="priority" x="5779.84" y="33.24" incLanes="199348020_0 199348020_1" intLanes=":2039989397_0_0 :2039989397_0_1" shape="5779.82,33.19 5778.46,26.84 5776.75,27.46 5779.82,33.19">
        <request index="0" response="00" foes="00" cont="0"/>
        <request index="1" response="00" foes="00" cont="0"/>
    </junction>
    <junction id="2934752272" type="unregulated" x="197.39" y="1807.39" incLanes="" intLanes="" shape="197.35,1807.35 190.48,1800.37"/>
    <junction id="30391552" type="unregulated" x="5934.47" y="0.00" incLanes="199348013_0 199348013_1" intLanes="" shape="5933.09,-6.40 5934.46,-0.05"/>
    <junction id="315862829" type="priority" x="5663.84" y="95.42" incLanes="199347986_0 199347986_1 199347986_2" intLanes=":315862829_0_0 :315862829_0_1 :315862829_2_0 :315862829_2_1 :315862829_2_2" shape="5707.60,83.13 5704.96,73.69 5704.84,73.39 5701.76,67.66 5702.90,81.01 5704.02,90.75">
        <request index="0" response="00000" foes="00000" cont="0"/>
        <request index="1" response="00000" foes="00000" cont="0"/>
        <request index="2" response="00000" foes="00000" cont="0"/>
        <request index="3" response="00000" foes="00000" cont="0"/>
        <request index="4" response="00000" foes="00000" cont="0"/>
    </junction>
    <junction id="589619" type="priority" x="367.72" y="1639.52" incLanes="289941480_0 289941480_1 289941480_2" intLanes=":589619_0_0 :589619_0_1 :589619_0_2" shape="367.61,1639.55 360.95,1632.37 360.87,1632.44 367.75,1639.42">
        <request index="0" response="000" foes="000" cont="0"/>
        <request index="1" response="000" foes="000" cont="0"/>
        <request index="2" response="000" foes="000" cont="0"/>
    </junction>
    <junction id="589622" type="priority" x="749.32" y="1285.42" incLanes="25730107_0 25730107_1 25730107_2" intLanes=":589622_0_0 :589622_0_1 :589622_0_2" shape="749.30,1285.37 742.58,1278.24 749.27,1285.40">
        <request index="0" response="000" foes="000" cont="0"/>
        <request index="1" response="000" foes="000" cont="0"/>
        <request index="2" response="000" foes="000" cont="0"/>
    </junction>
    <junction id="589625" type="priority" x="1112.46" y="943.03" incLanes="192064428_0 192064428_1 192064428_2" intLanes=":589625_0_0 :589625_0_1 :589625_0_2" shape="1112.43,942.99 1109.29,933.70 1105.71,935.86 1112.43,942.99">
        <request index="0" response="000" foes="000" cont="0"/>
        <request index="1" response="000" foes="000" cont="0"/>
        <request index="2" response="000" foes="000" cont="0"/>
    </junction>
    <junction id="589667" type="priority" x="5140.38" y="155.63" incLanes="192916359#0+56044321#1_0 192916359#0+56044321#1_1 192916359#0+56044321#1_2" intLanes=":589667_0_0 :589667_0_1 :589667_0_2" shape="5141.29,155.48 5140.17,145.74 5139.47,155.51">
        <request index="0" response="000" foes="000" cont="0"/>
        <request index="1" response="000" foes="000" cont="0"/>
        <request index="2" response="000" foes="000" cont="0"/>
    </junction>
    <junction id="703473816" type="priority" x="3899.28" y="14.24" incLanes="257301236_0 257301236_1 257301236_2" intLanes=":703473816_0_0 :703473816_0_1 :703473816_0_2" shape="3899.28,14.19 3900.45,4.46 3896.37,4.83 3899.28,14.19">
        <request index="0" response="000" foes="000" cont="0"/>
        <request index="1" response="000" foes="000" cont="0"/>
        <request index="2" response="000" foes="000" cont="0"/>
    </junction>
    <junction id="X10" type="priority" x="4321.77" y="65.06" incLanes="560443211#0_0 560443211#0_1 560443211#0_2" intLanes=":X10_0_0 :X10_0_1 :X10_0_2" shape="4321.68,65.00 4323.14,55.31 4323.04,55.29 4321.87,65.02">
        <request index="0" response="000" foes="000" cont="0"/>
        <request index="1" response="000" foes="000" cont="0"/>
        <request index="2" response="000" foes="000" cont="0"/>
    </junction>
    <junction id="X2" type="priority" x="1569.76" y="788.34" incLanes="257301231_0 257301231_1 257301231_2" intLanes=":X2_0_0 :X2_0_1 :X2_0_2" shape="1569.74,788.29 1566.60,779.01 1569.74,788.29">
        <request index="0" response="000" foes="000" cont="0"/>
        <request index="1" response="000" foes="000" cont="0"/>
        <request index="2" response="000" foes="000" cont="0"/>
    </junction>
    <junction id="X3" type="priority" x="2027.05" y="633.65" incLanes="257301232_0 257301232_1 257301232_2" intLanes=":X3_0_0 :X3_0_1 :X3_0_2" shape="2027.03,633.60 2023.89,624.32 2027.03,633.60">
        <request index="0" response="000" foes="000" cont="0"/>
        <request index="1" response="000" foes="000" cont="0"/>
        <request index="2" response="000" foes="000" cont="0"/>
    </junction>
    <junction id="X4" type="priority" x="2484.34" y="478.96" incLanes="257301233_0 257301233_1 257301233_2" intLanes=":X4_0_0 :X4_0_1 :X4_0_2" shape="2484.32,478.91 2481.18,469.63 2484.32,478.91">
        <request index="0" response="000" foes="000" cont="0"/>
        <request index="1" response="000" foes="000" cont="0"/>
        <request index="2" response="000" foes="000" cont="0"/>
    </junction>
    <junction id="X5" type="priority" x="2941.64" y="324.27" incLanes="257301234_0 257301234_1 257301234_2" intLanes=":X5_0_0 :X5_0_1 :X5_0_2" shape="2941.62,324.22 2938.48,314.94 2941.62,324.22">
        <request index="0" response="000" foes="000" cont="0"/>
        <request index="1" response="000" foes="000" cont="0"/>
        <request index="2" response="000" foes="000" cont="0"/>
    </junction>
    <junction id="X6" type="priority" x="3398.93" y="169.58" incLanes="257301235_0 257301235_1 257301235_2" intLanes=":X6_0_0 :X6_0_1 :X6_0_2" shape="3398.84,169.56 3395.93,160.20 3398.99,169.51">
        <request index="0" response="000" foes="000" cont="0"/>
        <request index="1" response="000" foes="000" cont="0"/>
        <request index="2" response="000" foes="000" cont="0"/>
    </junction>

    <connection from="192064428" to="257301231" fromLane="0" toLane="0" via=":589625_0_0" dir="s" state="M"/>
    <connection from="192064428" to="257301231" fromLane="1" toLane="1" via=":589625_0_1" dir="s" state="M"/>
    <connection from="192064428" to="257301231" fromLane="2" toLane="2" via=":589625_0_2" dir="s" state="M"/>
    <connection from="192916359#0+56044321#1" to="199347986" fromLane="0" toLane="0" via=":589667_0_0" dir="s" state="M"/>
    <connection from="192916359#0+56044321#1" to="199347986" fromLane="1" toLane="1" via=":589667_0_1" dir="s" state="M"/>
    <connection from="192916359#0+56044321#1" to="199347986" fromLane="2" toLane="2" via=":589667_0_2" dir="s" state="M"/>
    <connection from="199347986" to="199348020" fromLane="0" toLane="0" via=":315862829_0_0" dir="s" state="M"/>
    <connection from="199347986" to="199348020" fromLane="0" toLane="1" via=":315862829_0_1" dir="s" state="M"/>
    <connection from="199347986" to="199347993#0" fromLane="0" toLane="0" via=":315862829_2_0" dir="s" state="M"/>
    <connection from="199347986" to="199347993#0" fromLane="1" toLane="1" via=":315862829_2_1" dir="s" state="M"/>
    <connection from="199347986" to="199347993#0" fromLane="2" toLane="2" via=":315862829_2_2" dir="s" state="M"/>
    <connection from="199348020" to="199348013" fromLane="0" toLane="0" via=":2039989397_0_0" dir="s" state="M"/>
    <connection from="199348020" to="199348013" fromLane="1" toLane="1" via=":2039989397_0_1" dir="s" state="M"/>
    <connection from="25730107" to="192064428" fromLane="0" toLane="0" via=":589622_0_0" dir="s" state="M"/>
    <connection from="25730107" to="192064428" fromLane="1" toLane="1" via=":589622_0_1" dir="s" state="M"/>
    <connection from="25730107" to="192064428" fromLane="2" toLane="2" via=":589622_0_2" dir="s" state="M"/>
    <connection from="257301231" to="257301232" fromLane="0" toLane="0" via=":X2_0_0" dir="s" state="M"/>
    <connection from="257301231" to="257301232" fromLane="1" toLane="1" via=":X2_0_1" dir="s" state="M"/>
    <connection from="257301231" to="257301232" fromLane="2" toLane="2" via=":X2_0_2" dir="s" state="M"/>
    <connection from="257301232" to="257301233" fromLane="0" toLane="0" via=":X3_0_0" dir="s" state="M"/>
    <connection from="257301232" to="257301233" fromLane="1" toLane="1" via=":X3_0_1" dir="s" state="M"/>
    <connection from="257301232" to="257301233" fromLane="2" toLane="2" via=":X3_0_2" dir="s" state="M"/>
    <connection from="257301233" to="257301234" fromLane="0" toLane="0" via=":X4_0_0" dir="s" state="M"/>
    <connection from="257301233" to="257301234" fromLane="1" toLane="1" via=":X4_0_1" dir="s" state="M"/>
    <connection from="257301233" to="257301234" fromLane="2" toLane="2" via=":X4_0_2" dir="s" state="M"/>
    <connection from="257301234" to="257301235" fromLane="0" toLane="0" via=":X5_0_0" dir="s" state="M"/>
    <connection from="257301234" to="257301235" fromLane="1" toLane="1" via=":X5_0_1" dir="s" state="M"/>
    <connection from="257301234" to="257301235" fromLane="2" toLane="2" via=":X5_0_2" dir="s" state="M"/>
    <connection from="257301235" to="257301236" fromLane="0" toLane="0" via=":X6_0_0" dir="s" state="M"/>
    <connection from="257301235" to="257301236" fromLane="1" toLane="1" via=":X6_0_1" dir="s" state="M"/>
    <connection from="257301235" to="257301236" fromLane="2" toLane="2" via=":X6_0_2" dir="s" state="M"/>
    <connection from="257301236" to="560443211#0" fromLane="0" toLane="0" via=":703473816_0_0" dir="s" state="M"/>
    <connection from="257301236" to="560443211#0" fromLane="1" toLane="1" via=":703473816_0_1" dir="s" state="M"/>
    <connection from="257301236" to="560443211#0" fromLane="2" toLane="2" via=":703473816_0_2" dir="s" state="M"/>
    <connection from="289941480" to="25730107" fromLane="0" toLane="0" via=":589619_0_0" dir="s" state="M"/>
    <connection from="289941480" to="25730107" fromLane="1" toLane="1" via=":589619_0_1" dir="s" state="M"/>
    <connection from="289941480" to="25730107" fromLane="2" toLane="2" via=":589619_0_2" dir="s" state="M"/>
    <connection from="560443211#0" to="560443212#0" fromLane="0" toLane="0" via=":X10_0_0" dir="s" state="M"/>
    <connection from="560443211#0" to="560443212#0" fromLane="1" toLane="1" via=":X10_0_1" dir="s" state="M"/>
    <connection from="560443211#0" to="560443212#0" fromLane="2" toLane="2" via=":X10_0_2" dir="s" state="M"/>
    <connection from="560443212#0" to="192916359#0+56044321#1" fromLane="0" toLane="0" via=":2026267109_0_0" dir="s" state="M"/>
    <connection from="560443212#0" to="192916359#0+56044321#1" fromLane="1" toLane="1" via=":2026267109_0_1" dir="s" state="M"/>
    <connection from="560443212#0" to="192916359#0+56044321#1" fromLane="2" toLane="2" via=":2026267109_0_2" dir="s" state="M"/>

    <connection from=":2026267109_0" to="192916359#0+56044321#1" fromLane="0" toLane="0" dir="s" state="M"/>
    <connection from=":2026267109_0" to="192916359#0+56044321#1" fromLane="1" toLane="1" dir="s" state="M"/>
    <connection from=":2026267109_0" to="192916359#0+56044321#1" fromLane="2" toLane="2" dir="s" state="M"/>
    <connection from=":2039989397_0" to="199348013" fromLane="0" toLane="0" dir="s" state="M"/>
    <connection from=":2039989397_0" to="199348013" fromLane="1" toLane="1" dir="s" state="M"/>
    <connection from=":315862829_0" to="199348020" fromLane="0" toLane="0" dir="s" state="M"/>
    <connection from=":315862829_0" to="199348020" fromLane="1" toLane="1" dir="s" state="M"/>
    <connection from=":315862829_2" to="199347993#0" fromLane="0" toLane="0" dir="s" state="M"/>
    <connection from=":315862829_2" to="199347993#0" fromLane="1" toLane="1" dir="s" state="M"/>
    <connection from=":315862829_2" to="199347993#0" fromLane="2" toLane="2" dir="s" state="M"/>
    <connection from=":589619_0" to="25730107" fromLane="0" toLane="0" dir="s" state="M"/>
    <connection from=":589619_0" to="25730107" fromLane="1" toLane="1" dir="s" state="M"/>
    <connection from=":589619_0" to="25730107" fromLane="2" toLane="2" dir="s" state="M"/>
    <connection from=":589622_0" to="192064428" fromLane="0" toLane="0" dir="s" state="M"/>
    <connection from=":589622_0" to="192064428" fromLane="1" toLane="1" dir="s" state="M"/>
    <connection from=":589622_0" to="192064428" fromLane="2" toLane="2" dir="s" state="M"/>
    <connection from=":589625_0" to="257301231" fromLane="0" toLane="0" dir="s" state="M"/>
    <connection from=":589625_0" to="257301231" fromLane="1" toLane="1" dir="s" state="M"/>
    <connection from=":589625_0" to="257301231" fromLane="2" toLane="2" dir="s" state="M"/>
    <connection from=":589667_0" to="199347986" fromLane="0" toLane="0" dir="s" state="M"/>
    <connection from=":589667_0" to="199347986" fromLane="1" toLane="1" dir="s" state="M"/>
    <connection from=":589667_0" to="199347986" fromLane="2" toLane="2" dir="s" state="M"/>
    <connection from=":703473816_0" to="560443211#0" fromLane="0" toLane="0" dir="s" state="M"/>
    <connection from=":703473816_0" to="560443211#0" fromLane="1" toLane="1" dir="s" state="M"/>
    <connection from=":703473816_0" to="560443211#0" fromLane="2" toLane="2" dir="s" state="M"/>
    <connection from=":X10_0" to="560443212#0" fromLane="0" toLane="0" dir="s" state="M"/>
    <connection from=":X10_0" to="560443212#0" fromLane="1" toLane="1" dir="s" state="M"/>
    <connection from=":X10_0" to="560443212#0" fromLane="2" toLane="2" dir="s" state="M"/>
    <connection from=":X2_0" to="257301232" fromLane="0" toLane="0" dir="s" state="M"/>
    <connection from=":X2_0" to="257301232" fromLane="1" toLane="1" dir="s" state="M"/>
    <connection from=":X2_0" to="257301232" fromLane="2" toLane="2" dir="s" state="M"/>
    <connection from=":X3_0" to="257301233" fromLane="0" toLane="0" dir="s" state="M"/>
    <connection from=":X3_0" to="257301233" fromLane="1" toLane="1" dir="s" state="M"/>
    <connection from=":X3_0" to="257301233" fromLane="2" toLane="2" dir="s" state="M"/>
    <connection from=":X4_0" to="257301234" fromLane="0" toLane="0" dir="s" state="M"/>
    <connection from=":X4_0" to="257301234" fromLane="1" toLane="1" dir="s" state="M"/>
    <connection from=":X4_0" to="257301234" fromLane="2" toLane="2" dir="s" state="M"/>
    <connection from=":X5_0" to="257301235" fromLane="0" toLane="0" dir="s" state="M"/>
    <connection from=":X5_0" to="257301235" fromLane="1" toLane="1" dir="s" state="M"/>
    <connection from=":X5_0" to="257301235" fromLane="2" toLane="2" dir="s" state="M"/>
    <connection from=":X6_0" to="257301236" fromLane="0" toLane="0" dir="s" state="M"/>
    <connection from=":X6_0" to="257301236" fromLane="1" toLane="1" dir="s" state="M"/>
    <connection from=":X6_0" to="257301236" fromLane="2" toLane="2" dir="s" state="M"/>

</net>
